456
 generated by VMD
 C        -0.086000       -3.195000       -3.195000
 C         0.086000        3.195000       -3.195000
 C         0.086000       -3.195000        3.195000
 C        -0.086000        3.195000        3.195000
 C        -3.195000       -0.086000       -3.195000
 C        -3.195000        0.086000        3.195000
 C         3.195000        0.086000       -3.195000
 C         3.195000       -0.086000        3.195000
 C        -3.195000       -3.195000       -0.086000
 C         3.195000       -3.195000        0.086000
 C        -3.195000        3.195000        0.086000
 C         3.195000        3.195000       -0.086000
 C        -0.086000        7.294000        7.294000
 C         0.086000       -7.294000        7.294000
 C         0.086000        7.294000       -7.294000
 C        -0.086000       -7.294000       -7.294000
 C        -3.195000       10.403000        7.294000
 C        -3.195000      -10.403000       -7.294000
 C         3.195000      -10.403000        7.294000
 C         3.195000       10.403000       -7.294000
 C        -3.195000        7.294000       10.403000
 C         3.195000        7.294000      -10.403000
 C        -3.195000       -7.294000      -10.403000
 C         3.195000       -7.294000       10.403000
 C        10.403000       -3.195000        7.294000
 C       -10.403000        3.195000        7.294000
 C       -10.403000       -3.195000       -7.294000
 C        10.403000        3.195000       -7.294000
 C         7.294000       -0.086000        7.294000
 C         7.294000        0.086000       -7.294000
 C        -7.294000        0.086000        7.294000
 C        -7.294000       -0.086000       -7.294000
 C         7.294000       -3.195000       10.403000
 C        -7.294000       -3.195000      -10.403000
 C         7.294000        3.195000      -10.403000
 C        -7.294000        3.195000       10.403000
 C        10.403000        7.294000       -3.195000
 C       -10.403000       -7.294000       -3.195000
 C       -10.403000        7.294000        3.195000
 C        10.403000       -7.294000        3.195000
 C         7.294000       10.403000       -3.195000
 C         7.294000      -10.403000        3.195000
 C        -7.294000      -10.403000       -3.195000
 C        -7.294000       10.403000        3.195000
 C         7.294000        7.294000       -0.086000
 C        -7.294000        7.294000        0.086000
 C         7.294000       -7.294000        0.086000
 C        -7.294000       -7.294000       -0.086000
 C       -10.359000       -4.254000       -6.233000
 C        10.359000        4.254000       -6.233000
 C        10.359000       -4.254000        6.232000
 C       -10.359000        4.254000        6.232000
 C        -6.233000      -10.359000       -4.254000
 C        -6.233000       10.359000        4.254000
 C         6.232000       10.359000       -4.254000
 C         6.232000      -10.359000        4.254000
 C        -4.254000       -6.233000      -10.359000
 C         4.254000       -6.233000       10.359000
 C        -4.254000        6.232000       10.359000
 C         4.254000        6.232000      -10.359000
 C        -4.254000      -10.359000       -6.233000
 C         4.254000       10.359000       -6.233000
 C        -4.254000       10.359000        6.232000
 C         4.254000      -10.359000        6.232000
 C       -10.359000       -6.233000       -4.254000
 C        10.359000       -6.233000        4.254000
 C        10.359000        6.232000       -4.254000
 C       -10.359000        6.232000        4.254000
 C        -6.233000       -4.254000      -10.359000
 C        -6.233000        4.254000       10.359000
 C         6.232000       -4.254000       10.359000
 C         6.232000        4.254000      -10.359000
 C        -6.233000        0.130000        6.234000
 C        -6.233000       -0.130000       -6.235000
 C         6.232000       -0.130000        6.234000
 C         6.232000        0.130000       -6.235000
 C        -4.254000        4.256000        0.130000
 C         4.254000        4.256000       -0.130000
 C        -4.254000       -4.257000       -0.130000
 C         4.254000       -4.257000        0.130000
 C        -4.254000        0.130000        4.256000
 C         4.254000       -0.130000        4.256000
 C        -4.254000       -0.130000       -4.257000
 C         4.254000        0.130000       -4.257000
 C        -6.233000        6.234000        0.130000
 C        -6.233000       -6.235000       -0.130000
 C         6.232000        6.234000       -0.130000
 C         6.232000       -6.235000        0.130000
 C         0.130000       -4.254000        4.256000
 C        -0.130000        4.254000        4.256000
 C        -0.130000       -4.254000       -4.257000
 C         0.130000        4.254000       -4.257000
 C         0.130000       -6.233000        6.234000
 C        -0.130000       -6.233000       -6.235000
 C        -0.130000        6.232000        6.234000
 C         0.130000        6.232000       -6.235000
 C       -10.353000       -5.612000       -6.596000
 C        10.352000        5.611000       -6.596000
 C        10.352000       -5.612000        6.595000
 C       -10.353000        5.611000        6.595000
 C        -6.596000      -10.353000       -5.612000
 C        -6.596000       10.352000        5.611000
 C         6.595000       10.352000       -5.612000
 C         6.595000      -10.353000        5.611000
 C        -5.612000       -6.596000      -10.353000
 C         5.611000       -6.596000       10.352000
 C        -5.612000        6.595000       10.352000
 C         5.611000        6.595000      -10.353000
 C        -5.612000      -10.353000       -6.596000
 C         5.611000       10.352000       -6.596000
 C        -5.612000       10.352000        6.595000
 C         5.611000      -10.353000        6.595000
 C       -10.353000       -6.596000       -5.612000
 C        10.352000       -6.596000        5.611000
 C        10.352000        6.595000       -5.612000
 C       -10.353000        6.595000        5.611000
 C        -6.596000       -5.612000      -10.353000
 C        -6.596000        5.611000       10.352000
 C         6.595000       -5.612000       10.352000
 C         6.595000        5.611000      -10.353000
 C       -10.353000        4.877000        3.893000
 C        10.352000       -4.877000        3.893000
 C        10.352000        4.877000       -3.894000
 C       -10.353000       -4.877000       -3.894000
 C        -6.596000        0.136000        4.877000
 C        -6.596000       -0.136000       -4.877000
 C         6.595000       -0.136000        4.877000
 C         6.595000        0.136000       -4.877000
 C        -5.612000        3.893000        0.136000
 C         5.611000        3.893000       -0.136000
 C        -5.612000       -3.894000       -0.136000
 C         5.611000       -3.894000        0.136000
 C        -5.612000        0.136000        3.893000
 C         5.611000       -0.136000        3.893000
 C        -5.612000       -0.136000       -3.894000
 C         5.611000        0.136000       -3.894000
 C       -10.353000        3.893000        4.877000
 C        10.352000        3.893000       -4.877000
 C        10.352000       -3.894000        4.877000
 C       -10.353000       -3.894000       -4.877000
 C        -6.596000        4.877000        0.136000
 C        -6.596000       -4.877000       -0.136000
 C         6.595000        4.877000       -0.136000
 C         6.595000       -4.877000        0.136000
 C         0.136000       -5.612000        3.893000
 C        -0.136000        5.611000        3.893000
 C        -0.136000       -5.612000       -3.894000
 C         0.136000        5.611000       -3.894000
 C         3.893000      -10.353000        4.877000
 C         3.893000       10.352000       -4.877000
 C        -3.894000       10.352000        4.877000
 C        -3.894000      -10.353000       -4.877000
 C         4.877000       -6.596000        0.136000
 C        -4.877000       -6.596000       -0.136000
 C         4.877000        6.595000       -0.136000
 C        -4.877000        6.595000        0.136000
 C         4.877000      -10.353000        3.893000
 C        -4.877000       10.352000        3.893000
 C         4.877000       10.352000       -3.894000
 C        -4.877000      -10.353000       -3.894000
 C         0.136000       -6.596000        4.877000
 C        -0.136000       -6.596000       -4.877000
 C        -0.136000        6.595000        4.877000
 C         0.136000        6.595000       -4.877000
 C         3.893000       -5.612000        0.136000
 C         3.893000        5.611000       -0.136000
 C        -3.894000       -5.612000       -0.136000
 C        -3.894000        5.611000        0.136000
 C         0.136000        4.877000       -6.596000
 C        -0.136000       -4.877000       -6.596000
 C        -0.136000        4.877000        6.595000
 C         0.136000       -4.877000        6.595000
 C         3.893000        0.136000       -5.612000
 C         3.893000       -0.136000        5.611000
 C        -3.894000       -0.136000       -5.612000
 C        -3.894000        0.136000        5.611000
 C         4.877000        3.893000      -10.353000
 C        -4.877000        3.893000       10.352000
 C         4.877000       -3.894000       10.352000
 C        -4.877000       -3.894000      -10.353000
 C         4.877000        0.136000       -6.596000
 C        -4.877000       -0.136000       -6.596000
 C         4.877000       -0.136000        6.595000
 C        -4.877000        0.136000        6.595000
 C         0.136000        3.893000       -5.612000
 C        -0.136000        3.893000        5.611000
 C        -0.136000       -3.894000       -5.612000
 C         0.136000       -3.894000        5.611000
 C         3.893000        4.877000      -10.353000
 C         3.893000       -4.877000       10.352000
 C        -3.894000        4.877000       10.352000
 C        -3.894000       -4.877000      -10.353000
 H       -10.355000       -5.874000       -7.647000
 H        10.355000        5.874000       -7.647000
 H        10.355000       -5.874000        7.646000
 H       -10.355000        5.874000        7.646000
 H        -7.647000      -10.355000       -5.874000
 H        -7.647000       10.355000        5.874000
 H         7.646000       10.355000       -5.874000
 H         7.646000      -10.355000        5.874000
 H        -5.874000       -7.647000      -10.355000
 H         5.874000       -7.647000       10.355000
 H        -5.874000        7.646000       10.355000
 H         5.874000        7.646000      -10.355000
 H        -5.874000      -10.355000       -7.647000
 H         5.874000       10.355000       -7.647000
 H        -5.874000       10.355000        7.646000
 H         5.874000      -10.355000        7.646000
 H       -10.355000       -7.647000       -5.874000
 H        10.355000       -7.647000        5.874000
 H        10.355000        7.646000       -5.874000
 H       -10.355000        7.646000        5.874000
 H        -7.647000       -5.874000      -10.355000
 H        -7.647000        5.874000       10.355000
 H         7.646000       -5.874000       10.355000
 H         7.646000        5.874000      -10.355000
 H       -10.355000        4.615000        2.842000
 H        10.355000       -4.615000        2.842000
 H        10.355000        4.615000       -2.843000
 H       -10.355000       -4.615000       -2.843000
 H        -7.647000        0.134000        4.615000
 H        -7.647000       -0.134000       -4.615000
 H         7.646000       -0.134000        4.615000
 H         7.646000        0.134000       -4.615000
 H        -5.874000        2.842000        0.134000
 H         5.874000        2.842000       -0.134000
 H        -5.874000       -2.843000       -0.134000
 H         5.874000       -2.843000        0.134000
 H        -5.874000        0.134000        2.842000
 H         5.874000       -0.134000        2.842000
 H        -5.874000       -0.134000       -2.843000
 H         5.874000        0.134000       -2.843000
 H       -10.355000        2.842000        4.615000
 H        10.355000        2.842000       -4.615000
 H        10.355000       -2.843000        4.615000
 H       -10.355000       -2.843000       -4.615000
 H        -7.647000        4.615000        0.134000
 H        -7.647000       -4.615000       -0.134000
 H         7.646000        4.615000       -0.134000
 H         7.646000       -4.615000        0.134000
 H         0.134000       -5.874000        2.842000
 H        -0.134000        5.874000        2.842000
 H        -0.134000       -5.874000       -2.843000
 H         0.134000        5.874000       -2.843000
 H         2.842000      -10.355000        4.615000
 H         2.842000       10.355000       -4.615000
 H        -2.843000       10.355000        4.615000
 H        -2.843000      -10.355000       -4.615000
 H         4.615000       -7.647000        0.134000
 H        -4.615000       -7.647000       -0.134000
 H         4.615000        7.646000       -0.134000
 H        -4.615000        7.646000        0.134000
 H         4.615000      -10.355000        2.842000
 H        -4.615000       10.355000        2.842000
 H         4.615000       10.355000       -2.843000
 H        -4.615000      -10.355000       -2.843000
 H         0.134000       -7.647000        4.615000
 H        -0.134000       -7.647000       -4.615000
 H        -0.134000        7.646000        4.615000
 H         0.134000        7.646000       -4.615000
 H         2.842000       -5.874000        0.134000
 H         2.842000        5.874000       -0.134000
 H        -2.843000       -5.874000       -0.134000
 H        -2.843000        5.874000        0.134000
 H         0.134000        4.615000       -7.647000
 H        -0.134000       -4.615000       -7.647000
 H        -0.134000        4.615000        7.646000
 H         0.134000       -4.615000        7.646000
 H         2.842000        0.134000       -5.874000
 H         2.842000       -0.134000        5.874000
 H        -2.843000       -0.134000       -5.874000
 H        -2.843000        0.134000        5.874000
 H         4.615000        2.842000      -10.355000
 H        -4.615000        2.842000       10.355000
 H         4.615000       -2.843000       10.355000
 H        -4.615000       -2.843000      -10.355000
 H         4.615000        0.134000       -7.647000
 H        -4.615000       -0.134000       -7.647000
 H         4.615000       -0.134000        7.646000
 H        -4.615000        0.134000        7.646000
 H         0.134000        2.842000       -5.874000
 H        -0.134000        2.842000        5.874000
 H        -0.134000       -2.843000       -5.874000
 H         0.134000       -2.843000        5.874000
 H         2.842000        4.615000      -10.355000
 H         2.842000       -4.615000       10.355000
 H        -2.843000        4.615000       10.355000
 H        -2.843000       -4.615000      -10.355000
 H         8.521000       -1.968000       -8.521000
 H        -8.521000        1.967000       -8.521000
 H        -8.521000       -1.968000        8.521000
 H         8.521000        1.967000        8.521000
 H        -8.521000        8.521000       -1.968000
 H        -8.521000       -8.521000        1.967000
 H         8.521000       -8.521000       -1.968000
 H         8.521000        8.521000        1.967000
 H        -1.968000       -8.521000        8.521000
 H         1.967000       -8.521000       -8.521000
 H        -1.968000        8.521000       -8.521000
 H         1.967000        8.521000        8.521000
 H        -1.968000        1.967000       -1.968000
 H         1.967000        1.967000        1.967000
 H        -1.968000       -1.968000        1.967000
 H         1.967000       -1.968000       -1.968000
 O       -10.435000       -3.583000       -8.505000
 O        10.434000        3.583000       -8.505000
 O        10.434000       -3.583000        8.504000
 O       -10.435000        3.583000        8.504000
 O        -8.505000      -10.435000       -3.583000
 O        -8.505000       10.434000        3.583000
 O         8.504000       10.434000       -3.583000
 O         8.504000      -10.435000        3.583000
 O        -3.583000       -8.505000      -10.435000
 O         3.583000       -8.505000       10.434000
 O        -3.583000        8.504000       10.434000
 O         3.583000        8.504000      -10.435000
 O        -3.583000      -10.435000       -8.505000
 O         3.583000       10.434000       -8.505000
 O        -3.583000       10.434000        8.504000
 O         3.583000      -10.435000        8.504000
 O       -10.435000       -8.505000       -3.583000
 O        10.434000       -8.505000        3.583000
 O        10.434000        8.504000       -3.583000
 O       -10.435000        8.504000        3.583000
 O        -8.505000       -3.583000      -10.435000
 O        -8.505000        3.583000       10.434000
 O         8.504000       -3.583000       10.434000
 O         8.504000        3.583000      -10.435000
 O       -10.435000        6.906000        1.984000
 O        10.434000       -6.906000        1.984000
 O        10.434000        6.906000       -1.985000
 O       -10.435000       -6.906000       -1.985000
 O        -8.505000        0.054000        6.906000
 O        -8.505000       -0.055000       -6.906000
 O         8.504000       -0.055000        6.906000
 O         8.504000        0.054000       -6.906000
 O        -3.583000        1.984000        0.054000
 O         3.583000        1.984000       -0.055000
 O        -3.583000       -1.985000       -0.055000
 O         3.583000       -1.985000        0.054000
 O        -3.583000        0.054000        1.984000
 O         3.583000       -0.055000        1.984000
 O        -3.583000       -0.055000       -1.985000
 O         3.583000        0.054000       -1.985000
 O       -10.435000        1.984000        6.906000
 O        10.434000        1.984000       -6.906000
 O        10.434000       -1.985000        6.906000
 O       -10.435000       -1.985000       -6.906000
 O        -8.505000        6.906000        0.054000
 O        -8.505000       -6.906000       -0.055000
 O         8.504000        6.906000       -0.055000
 O         8.504000       -6.906000        0.054000
 O         0.054000       -3.583000        1.984000
 O        -0.055000        3.583000        1.984000
 O        -0.055000       -3.583000       -1.985000
 O         0.054000        3.583000       -1.985000
 O         1.984000      -10.435000        6.906000
 O         1.984000       10.434000       -6.906000
 O        -1.985000       10.434000        6.906000
 O        -1.985000      -10.435000       -6.906000
 O         6.906000       -8.505000        0.054000
 O        -6.906000       -8.505000       -0.055000
 O         6.906000        8.504000       -0.055000
 O        -6.906000        8.504000        0.054000
 O         6.906000      -10.435000        1.984000
 O        -6.906000       10.434000        1.984000
 O         6.906000       10.434000       -1.985000
 O        -6.906000      -10.435000       -1.985000
 O         0.054000       -8.505000        6.906000
 O        -0.055000       -8.505000       -6.906000
 O        -0.055000        8.504000        6.906000
 O         0.054000        8.504000       -6.906000
 O         1.984000       -3.583000        0.054000
 O         1.984000        3.583000       -0.055000
 O        -1.985000       -3.583000       -0.055000
 O        -1.985000        3.583000        0.054000
 O         0.054000        6.906000       -8.505000
 O        -0.055000       -6.906000       -8.505000
 O        -0.055000        6.906000        8.504000
 O         0.054000       -6.906000        8.504000
 O         1.984000        0.054000       -3.583000
 O         1.984000       -0.055000        3.583000
 O        -1.985000       -0.055000       -3.583000
 O        -1.985000        0.054000        3.583000
 O         6.906000        1.984000      -10.435000
 O        -6.906000        1.984000       10.434000
 O         6.906000       -1.985000       10.434000
 O        -6.906000       -1.985000      -10.435000
 O         6.906000        0.054000       -8.505000
 O        -6.906000       -0.055000       -8.505000
 O         6.906000       -0.055000        8.504000
 O        -6.906000        0.054000        8.504000
 O         0.054000        1.984000       -3.583000
 O        -0.055000        1.984000        3.583000
 O        -0.055000       -1.985000       -3.583000
 O         0.054000       -1.985000        3.583000
 O         1.984000        6.906000      -10.435000
 O         1.984000       -6.906000       10.434000
 O        -1.985000        6.906000       10.434000
 O        -1.985000       -6.906000      -10.435000
 O         1.411000       -1.412000       -1.412000
 O        -1.412000        1.411000       -1.412000
 O        -1.412000       -1.412000        1.411000
 O         1.411000        1.411000        1.411000
 O         1.411000        9.077000        9.077000
 O        -1.412000       -9.077000        9.077000
 O        -1.412000        9.077000       -9.077000
 O         1.411000       -9.077000       -9.077000
 O        -9.077000       -1.412000        9.077000
 O         9.077000        1.411000        9.077000
 O         9.077000       -1.412000       -9.077000
 O        -9.077000        1.411000       -9.077000
 O        -9.077000        9.077000       -1.412000
 O         9.077000       -9.077000       -1.412000
 O         9.077000        9.077000        1.411000
 O        -9.077000       -9.077000        1.411000
 O        -1.036000       -9.453000       -9.453000
 O         1.036000        9.452000       -9.453000
 O         1.036000       -9.453000        9.452000
 O        -1.036000        9.452000        9.452000
 O        -9.453000       -1.036000       -9.453000
 O        -9.453000        1.036000        9.452000
 O         9.452000        1.036000       -9.453000
 O         9.452000       -1.036000        9.452000
 O        -9.453000       -9.453000       -1.036000
 O         9.452000       -9.453000        1.036000
 O        -9.453000        9.452000        1.036000
 O         9.452000        9.452000       -1.036000
 O        -1.036000        1.036000        1.036000
 O         1.036000       -1.036000        1.036000
 O         1.036000        1.036000       -1.036000
 O        -1.036000       -1.036000       -1.036000
 Zr        0.000000       -2.526000        0.000000
 Zr        0.000000        2.525000        0.000000
 Zr        0.000000        0.000000       -2.526000
 Zr        0.000000        0.000000        2.525000
 Zr       -2.526000        0.000000        0.000000
 Zr        2.525000        0.000000        0.000000
 Zr        0.000000        7.963000      -10.489000
 Zr        0.000000       -7.963000      -10.489000
 Zr        0.000000      -10.489000        7.963000
 Zr        0.000000      -10.489000       -7.963000
 Zr       -2.526000      -10.489000      -10.489000
 Zr        2.525000      -10.489000      -10.489000
 Zr      -10.489000       -2.526000      -10.489000
 Zr      -10.489000        2.525000      -10.489000
 Zr      -10.489000        0.000000        7.963000
 Zr      -10.489000        0.000000       -7.963000
 Zr        7.963000        0.000000      -10.489000
 Zr       -7.963000        0.000000      -10.489000
 Zr      -10.489000        7.963000        0.000000
 Zr      -10.489000       -7.963000        0.000000
 Zr      -10.489000      -10.489000       -2.526000
 Zr      -10.489000      -10.489000        2.525000
 Zr        7.963000      -10.489000        0.000000
 Zr       -7.963000      -10.489000        0.000000
